18
S=C(N1CC1)N1C=CCO1
S          1.27055        0.09618        0.43138
C          2.88203       -0.17971       -0.01511
N          3.72056       -1.15666        0.55719
C          3.60681       -1.64898        1.89752
C          3.33863       -2.52658        0.72744
N          3.52887        0.56185       -1.00083
O          4.86273        0.21789       -1.35916
C          5.25306        1.15007       -2.38817
C          4.07102        2.02196       -2.58208
C          3.11354        1.62018       -1.75067
H          2.77711       -1.29133        2.49088
H          4.55784       -1.72190        2.40706
H          2.32087       -2.77583        0.46475
H          4.10206       -3.22243        0.40796
H          5.50213        0.59476       -3.29682
H          6.12417        1.71333       -2.04175
H          4.00606        2.84301       -3.27690
H          2.12707        2.04636       -1.64024
S          1.27055        0.09618        0.43138
