9
C#Cc1nscn1
S          6.03284        0.90715        0.08124
C          5.82880       -0.79763        0.07913
N          4.56340       -1.16055        0.07801
H          0.11843       -0.13280        0.07728
H          6.65556       -1.49373        0.07875
C          1.18245       -0.11811        0.07757
C          2.38373       -0.07917        0.07809
C          3.80634       -0.00282        0.07890
N          4.38505        1.19763        0.08064
