10
C#Cc1nccs1
S          4.46143       -1.52430       -0.07121
H         -0.04562        0.12544       -0.06700
H          6.51605        1.41946       -0.08841
H          6.90088       -1.22987       -0.08269
C          1.01933        0.12170       -0.06807
C          2.21901        0.08525       -0.06998
C          3.64172       -0.01373       -0.07324
N          4.41433        1.05358       -0.07914
C          5.74024        0.66311       -0.08301
C          5.96164       -0.69701       -0.08008
