13
Cn1sccc1=N
S          3.13299        1.53449       -0.02975
C          4.64969        0.67846       -0.03588
C          4.55353       -0.65761       -0.03269
C          3.11158       -1.00834       -0.02486
N          2.70104       -2.23363       -0.02184
H          0.40200        1.04721       -0.02388
H          0.48490       -0.48046        0.86141
H          0.48853       -0.47733       -0.91460
H          5.58773        1.21708       -0.04216
H          5.35652       -1.37215       -0.03606
H          3.49389       -2.88079       -0.02487
C          0.85199        0.04786       -0.02490
N          2.29169        0.09467       -0.02137
