13
Cn1ccsc1=N
S          4.93082       -0.90431       -0.06353
C          3.17693       -1.19223       -0.07161
N          2.72035       -2.39106       -0.07586
H          0.70393        1.10517       -0.07440
H          0.66322       -0.42391        0.81563
H          0.66477       -0.42492       -0.96258
H          2.92280        2.10563       -0.06588
H          5.47222        1.54411       -0.05596
H          3.53426       -3.01576       -0.07384
C          1.06728        0.07178       -0.07343
N          2.51216        0.01446       -0.07192
C          3.35472        1.11336       -0.06613
C          4.66434        0.82653       -0.06114
