14
NC=CS(=O)(=O)C
S          2.85609        0.06329        0.02856
O          1.50846       -0.47494        0.03117
O          3.91991       -0.61850       -0.68224
C          3.32354        0.36445        1.67237
C          4.61811        0.48420        1.98136
N          5.13870        0.79602        3.21207
H          2.46008        1.65411       -1.66887
H          3.73396        2.19419       -0.53867
H          2.00484        2.27499       -0.05581
H          2.53135        0.48660        2.39508
H          5.39303        0.35605        1.22404
H          4.52129        0.62328        4.00216
H          6.08416        0.44951        3.36844
C          2.75565        1.71675       -0.61870
