13
Cc1csnc1N
S          4.97380        0.75068       -0.02008
N          4.70934       -0.88019       -0.00667
C          3.40163       -1.11086        0.00032
N          2.91119       -2.35926        0.02447
H          0.65105        1.05068       -0.01894
H          0.67843       -0.48027        0.86979
H          0.68197       -0.48013       -0.90793
H          3.01644        2.22715       -0.03124
H          3.55815       -3.13661       -0.04933
H          1.93203       -2.58821       -0.07101
C          1.05904        0.03535       -0.01798
C          2.54804        0.04669       -0.01587
C          3.32540        1.19192       -0.02417
