13
CCc1cnns1
S          3.19680        2.46534       -1.25019
H          0.65356       -0.71182        0.80768
H          0.55569       -0.55132       -0.95458
H          0.50294        0.89175        0.07045
H          2.89968       -1.01109       -0.13798
H          2.84958        0.45817        0.82337
H          3.21417       -0.67405       -2.92407
C          0.96097       -0.09668       -0.04408
C          2.47790        0.00083       -0.10069
C          2.94266        0.76778       -1.28866
C          3.26033        0.34621       -2.56658
N          3.66968        1.34066       -3.43752
N          3.67774        2.52627       -2.85148
