14
C1CC1c1nnsc1
S          3.16210       -1.79662        2.91191
N          1.67075       -1.28847        3.47700
N          0.89250       -0.81458        2.51853
H         -0.17957        1.32477        1.05448
H         -0.05600        1.51979       -0.74772
H         -1.10004       -0.74102       -1.06086
H         -1.22312       -0.92931        0.74103
H          1.40522       -0.51061       -0.90633
H          3.49112       -1.52955        0.47481
C         -0.05612        0.83659        0.09364
C         -0.67415       -0.50565       -0.09290
C          0.83396       -0.38657        0.00764
C          1.51438       -0.86938        1.28115
C          2.79463       -1.38576        1.28643
