10
c1cc2c(s1)onn2
S          1.63580       -1.22332       -0.00333
C          2.14882        0.44989       -0.00034
C          1.07320        1.33515        0.00291
H          3.20602        0.68052       -0.00116
H          1.16546        2.41268        0.00533
O         -1.15179       -1.31070       -0.00123
N         -2.10494       -0.25522        0.00190
N         -1.43286        0.90734        0.00410
C         -0.12129        0.60778        0.00235
C          0.05528       -0.71554       -0.00081
