13
C1=Cc2c(C1)snc2
S          1.56219        1.30221       -0.00018
N          2.29086       -0.22003       -0.00414
C          1.32923       -1.15619       -0.00469
H         -1.56586        1.85469        0.90827
H         -1.56978        1.86126       -0.89221
H         -3.24184       -0.08200        0.00474
H         -1.63146       -2.14479       -0.00303
H          1.64208       -2.19137       -0.00639
C         -1.35901        1.27411        0.00543
C         -2.16280       -0.03809        0.00281
C         -1.32812       -1.10696       -0.00112
C          0.01861       -0.66118       -0.00251
C          0.00638        0.70633        0.00083
