17
C1C2CC1c1c2csc1
S         -2.44500        0.15485       -0.51075
C         -1.20653        1.13084        0.23098
C         -0.07384        0.39198        0.31684
H          3.26816       -0.42194       -0.13426
H          2.10969        0.16345       -1.34466
H          1.72711        1.36624        1.28983
H          0.89055       -1.25418        2.29127
H          2.60644       -1.19661        1.84163
H          1.43883       -2.48900       -0.29646
H         -1.75340       -2.14661       -1.12161
H         -1.40800        2.14462        0.54346
C          2.20198       -0.26153       -0.33907
C          1.35274        0.46357        0.81413
C          1.58988       -0.97507        1.49503
C          1.20789       -1.47434        0.01751
C         -0.17279       -0.89706       -0.20451
C         -1.39426       -1.22319       -0.68893
