15
C1C2CN2c2c1nsc2
S          2.53680       -0.16654        0.38661
C          1.30966       -1.24658       -0.18794
C          0.14894       -0.53542       -0.24265
N         -1.11935       -0.84451       -0.64397
H         -3.05685       -1.33375        0.07576
H         -1.86627       -0.84107        1.37764
H         -2.48878        0.74752       -1.30254
H         -1.24362        1.96929        1.01828
H         -0.83777        2.38014       -0.68129
H          1.50838       -2.28256       -0.42322
C         -2.18790       -0.74779        0.34917
C         -1.87836        0.48081       -0.45252
C         -0.91766        1.57339        0.05323
C          0.34150        0.80629        0.15580
N          1.54962        1.18899        0.53355
