15
C1C2CN2c2c1snc2
S          1.84320        1.18665        0.56307
N         -1.12686       -0.80629       -0.62136
H         -3.06356       -1.31621        0.10207
H         -1.89089       -0.76465        1.39685
H         -2.50291        0.74133       -1.34096
H         -1.31903        2.01393        1.00560
H         -0.91307        2.42872       -0.69505
H          1.57100       -2.14742       -0.43406
C         -2.20676       -0.70787        0.36225
C         -1.92217        0.50977       -0.46030
C         -0.98175        1.62332        0.04212
C          0.26494        0.85291        0.14210
C          0.13272       -0.45651       -0.22473
C          1.37400       -1.11644       -0.17366
N          2.40378       -0.37282        0.25864
