15
s1cc2c(n1)C1CN2C1
S         -2.31248       -0.07890        0.07867
N         -0.98070       -0.88301        0.76682
C          0.06000       -0.16548        0.40837
H          1.75968       -0.25407       -1.69343
H          3.12083        0.63792       -0.95225
H          2.09337       -0.84904        1.19359
H          2.83003        1.83513        0.82301
H          1.22085        1.95382        1.59371
H         -1.88292        2.02422       -1.20947
C          2.06969        0.34834       -0.83241
C          1.56232       -0.10978        0.60178
C          1.80323        1.45164        0.81154
N          1.14982        1.51862       -0.54886
C         -0.10720        0.97628       -0.37705
C         -1.41028        1.22208       -0.66420
