14
C1C2C1N=C1N2SN=C1
S          4.35804       -1.32529       -2.79322
N          3.15288       -0.56676       -1.93982
C          2.60259       -0.94648       -0.63785
H          0.73840        0.26253       -0.89838
H          0.75530       -0.77381        0.58923
H          2.89491        0.29598        1.28687
H          4.88380        2.16570       -2.82801
H          2.91790       -1.88712       -0.20982
C          1.34014       -0.27656       -0.17598
C          2.65148        0.32681        0.23253
N          3.35708        1.32086       -0.57989
C          3.60590        0.71127       -1.70843
C          4.62710        1.10415       -2.71601
N          5.13803        0.09952       -3.36164
