15
C1C2C1N=C1N2C=CS1
S         -0.73633       -3.06376       -0.63832
C          0.96588       -3.38158       -0.23010
C          1.64161       -2.23766       -0.00619
N          0.87381       -1.12434       -0.19199
C          0.97450        0.22021        0.34031
H          0.86391        2.37346       -0.18880
H          0.42323        1.26917       -1.55654
H         -0.87735        1.29075        1.22528
H          1.35649       -4.38466       -0.13748
H          2.67298       -2.13440        0.29704
H          1.57769        0.35723        1.22646
C          0.52239        1.38800       -0.48405
C         -0.49381        0.71736        0.39205
N         -1.31989       -0.41136       -0.06336
C         -0.47162       -1.36344       -0.33270
