14
s1nc2c(c1)C1CC2O1
S         -2.40348       -0.00692       -0.71173
C         -1.32032        1.19426       -0.05077
C         -0.13815        0.55663        0.12351
H          3.23739       -0.14785       -0.21277
H          2.04924        0.22086       -1.50244
H          1.63512        1.64385        1.04571
H          1.55045       -2.26407        0.00443
H         -1.63224        2.20886        0.14807
C          2.17246       -0.06115       -0.45287
C          1.27286        0.71321        0.61250
O          1.60858       -0.54893        1.44034
C          1.23244       -1.22712        0.09444
C         -0.17536       -0.78242       -0.24737
N         -1.29066       -1.28905       -0.72626
