8
c1ccns1
S          1.04746       -0.06418        0.00338
C         -0.14890       -1.28994        0.00342
C         -1.39176       -0.69306        0.00409
C         -1.25445        0.72442        0.00519
N         -0.01646        1.21078        0.00490
H          0.10821       -2.33920        0.00287
H         -2.33020       -1.23024        0.00397
H         -2.06671        1.44025        0.00619
