19
S=C1NOCC(N1)C1CN1
S          1.43658        0.04108        1.22192
C          2.79905        0.01518        0.26905
N          3.42096       -1.14725       -0.04182
O          4.42954       -1.24050       -1.02584
C          5.25972       -0.07294       -0.98868
C          4.37340        1.15024       -1.21857
N          3.33109        1.17632       -0.20344
C          5.17893        2.42330       -1.25515
C          4.51030        3.77374       -1.35890
N          5.20318        3.37027       -0.13936
H          3.01802       -2.02919        0.25766
H          6.00622       -0.16803       -1.78295
H          5.79108       -0.03332       -0.02977
H          3.84978        1.03658       -2.17568
H          2.75965        2.00190       -0.08002
H          6.11005        2.30865       -1.80189
H          3.43234        3.85243       -1.30919
H          5.00041        4.53580       -1.95420
H          4.55328        3.07084        0.59179
S          1.43658        0.04108        1.22192
