20
S=C1NOCC2N1CCC2
S          1.43780       -0.13544        1.08376
C          2.90544       -0.11387        0.28304
N          3.53872       -1.29900        0.05359
O          4.74778       -1.44029       -0.66267
C          5.57547       -0.28496       -0.47779
C          4.77431        0.92602       -0.91394
C          5.46089        2.26289       -0.68463
C          4.30527        3.24218       -0.48120
C          3.14423        2.40218        0.04653
N          3.55767        1.02014       -0.13641
H          3.10592       -2.16362        0.36033
H          6.47044       -0.40490       -1.09639
H          5.88826       -0.23218        0.57206
H          4.46152        0.82216       -1.96137
H          6.10101        2.54837       -1.52522
H          6.08260        2.23646        0.21757
H          4.03072        3.71392       -1.43105
H          4.57301        4.04147        0.21790
H          2.23131        2.58246       -0.53177
H          2.94056        2.59254        1.10400
S          1.43780       -0.13544        1.08376
