12
C=CS(=O)(=O)C
S          2.80296       -0.01031       -0.01219
O          3.19598       -0.32258        1.34921
O          3.19614       -0.87333       -1.10927
C          3.27379        1.61562       -0.40975
C          3.45195        2.52795        0.55454
H          0.62689       -0.88392        0.20282
H          0.70848        0.39552       -1.04215
H          0.70424        0.82914        0.70283
H          3.42772        1.84218       -1.45602
H          3.32071        2.28838        1.60707
H          3.76179        3.53899        0.31013
C          1.03150        0.10086       -0.04164
