10
C#CS(=O)(=O)C
S          2.87099        0.04499        0.06116
O          3.39790       -0.32908       -1.22999
O          3.39714        1.09468        0.90075
C          3.43756       -1.36329        1.00235
C          3.84080       -2.30536        1.63186
H          0.72590        0.83544       -0.46791
H          0.76690        0.05221        1.13792
H          0.76734       -0.94784       -0.35789
H          4.22361       -3.13128        2.18359
C          1.10276       -0.01664        0.10189
