14
CCc1cscn1
S          3.84557       -1.40556       -3.65503
C          3.66004        0.29503       -3.54770
N          3.25381        0.76262       -2.38798
H          0.71002        0.22006        0.95537
H          0.63532       -0.94053       -0.38352
H          0.63644        0.79666       -0.72064
H          2.95778       -0.73577        0.57533
H          2.95654        0.98334        0.19915
H          3.27115       -2.50057       -1.53167
H          3.86517        0.94062       -4.39122
C          1.05033        0.02217       -0.06584
C          2.56975        0.01119       -0.12690
C          3.06439       -0.28793       -1.50348
C          3.34502       -1.53877       -2.02100
