15
CC=CS(=O)(=O)C
S          5.03903       -0.82691       -0.77673
C          5.53881        0.43555       -1.91900
O          5.48367       -0.41690        0.54305
O          5.46248       -2.09732       -1.33364
H          0.76925        0.90804        0.60567
H          0.69125       -0.83299        0.30339
H          0.72779        0.31885       -1.06113
H          3.11685        0.67228        0.68041
H          2.82955       -1.40270       -1.59421
H          5.18488        1.40497       -1.56311
H          5.12987        0.20906       -2.90555
H          6.63095        0.43550       -1.96392
C          1.11410        0.10939       -0.05902
C          2.60627        0.05177       -0.05478
C          3.30477       -0.75087       -0.87415
