15
CC=CNC(=S)N
S          7.05254        0.96232       -2.02430
H          0.81549       -0.48334        1.06223
H          0.70629       -0.64531       -0.69638
H          0.70629        0.97135        0.06083
H          3.17394       -0.39290        0.86914
H          2.67331        0.89326       -1.87687
H          5.14387        0.17634       -0.34622
H          3.81281        1.59182       -3.36831
H          5.39938        1.87972       -3.98299
C          1.12605       -0.03830        0.11205
C          2.61685        0.00282        0.02427
C          3.24789        0.50338       -1.04445
N          4.61399        0.54393       -1.13103
C          5.39485        1.01610       -2.13913
N          4.80950        1.53102       -3.23851
