17
CCCS(=O)(=O)C
S          4.91812        0.52372        1.34605
C          5.32171        1.17335        2.95018
O          5.41124       -0.83904        1.29289
O          5.32603        1.50728        0.36256
H          0.67471       -0.53047       -0.86614
H          0.63162        0.86815        0.22084
H          0.69225       -0.77499        0.88866
H          2.90395        0.53648       -0.78027
H          2.96365       -1.09202       -0.11880
H          2.83591       -0.16199        2.21278
H          2.77702        1.48908        1.54086
H          4.95184        0.48748        3.71441
H          4.86612        2.15904        3.05917
H          6.40869        1.25557        3.01825
C          1.05417       -0.13187        0.08014
C          2.57336       -0.08383        0.06092
C          3.13134        0.46804        1.36796
