12
CNS(=O)(=O)C#C
S          2.98882       -1.44353        0.90467
O          4.42658       -1.38456        0.95878
O          2.13332       -1.77469        2.01498
C          2.79102       -2.92065       -0.06861
C          2.65262       -3.91558       -0.72841
H          0.67140        0.79694       -0.70187
H          0.46267        0.08626        0.90337
H          0.53778       -0.96183       -0.54990
H          2.81841        0.73180        0.39940
H          2.53809       -4.80170       -1.30727
C          0.93106       -0.06007       -0.07357
N          2.38894       -0.12809        0.05684
