13
CC1COS1(=O)=O
S          3.18253       -1.29274        1.02286
O          2.42569       -1.67117        2.19552
O          3.93608       -2.21873        0.21024
H          0.49881        0.79715       -0.55422
H          0.45612        0.07203        1.05985
H          0.46953       -0.96264       -0.37732
H          2.77867       -0.05105       -0.96547
H          2.50775        1.28264        1.84118
H          3.50594        1.81370        0.46960
C          0.86756       -0.03710        0.05125
C          2.38042       -0.06081        0.05682
C          3.08534        0.93906        0.97396
O          4.11442        0.00587        1.37729
