14
CC1CS(=O)(=O)N1
S          4.31852       -0.02125        1.22519
O          4.52246       -0.17293        2.64340
O          5.35274       -0.07890        0.22305
N          3.04412       -1.05359        0.77900
H          0.44392        0.76733       -0.57324
H          0.49255        0.03542        1.03790
H          0.53580       -0.98894       -0.40983
H          2.76284        0.02313       -1.05450
H          2.49385        1.46063        1.72271
H          3.40481        2.02438        0.28676
H          2.55558       -1.36790        1.62072
C          0.88266       -0.04119        0.01636
C          2.39469        0.04385       -0.01825
C          3.05342        1.14839        0.83524
