13
Cc1snnc1C
S          3.46584       -1.33651       -0.09557
H          0.74232        1.20282       -0.09340
H          0.73781       -0.32265        0.79724
H          0.73579       -0.32559       -0.97854
H          2.28830        2.90134       -0.08908
H          3.80611        3.08440       -0.98048
H          3.81155        3.08397        0.79347
C          1.13182        0.18057       -0.09205
C          2.61402        0.15708       -0.09335
C          3.56430        1.16891       -0.09356
C          3.34876        2.63706       -0.09233
N          4.88236        0.72192       -0.09524
N          4.96115       -0.59656       -0.09635
