12
Oc1csnc1C
S          4.64067        0.88777        0.05617
C          4.51848       -0.82060        0.05609
C          3.18381       -1.15006        0.05646
O          2.72951       -2.41851        0.05693
H          0.46557        1.03272        0.05392
H          0.49125       -0.49854        0.94415
H          0.49191       -0.50100       -0.83208
H          5.39448       -1.45088        0.05581
H          3.46767       -3.05171        0.05849
C          0.87114        0.01576        0.05547
C          2.35744        0.01485        0.05597
N          3.00834        1.18093        0.05602
