15
CCc1cscc1
S          3.24101       -4.04991        0.58602
C          4.36758       -3.08783        1.43650
C          4.13295       -1.74262        1.26105
H          2.74065        1.43525       -1.41930
H          2.99784       -0.20257       -2.04725
H          4.23870        0.56583       -1.04421
H          1.41392       -0.14823       -0.08133
H          2.67856        0.56812        0.90755
H          1.57992       -2.78974       -0.66582
H          5.14586       -3.55345        2.02542
H          4.74232       -0.97416        1.72284
C          3.15829        0.45101       -1.18309
C          2.50048       -0.11280        0.06615
C          3.00333       -1.48202        0.41758
C          2.43758       -2.66661       -0.01893
