14
CCc1cncs1
S          3.21147        2.06435        1.67116
H          0.67307       -1.21516       -0.12704
H          0.50713        0.37662       -0.88673
H          0.51496        0.23377        0.87905
H          2.86987       -0.42786       -0.97827
H          2.88497       -0.64050        0.76411
H          3.06991        2.20611       -1.91733
H          3.94489        4.40633        1.52165
C          0.95406       -0.16015       -0.04354
C          2.46947       -0.02319       -0.04109
C          2.91105        1.39614        0.11639
C          3.16609        2.35156       -0.84926
N          3.58150        3.58492       -0.37935
C          3.64117        3.55043        0.93399
