11
C=Cc1cnns1
S          4.49320        1.30735       -1.17430
H          0.72127       -1.11901        0.69416
H          0.77770        0.66863        1.15262
H          2.74189       -0.93197       -0.60646
H          2.00628        2.73686        0.92350
C          1.23018       -0.16139        0.62000
C          2.35265       -0.05035       -0.10019
C          3.04899        1.18002       -0.22795
C          2.82782        2.45331        0.28006
N          3.74404        3.42743       -0.07939
N          4.68760        2.93628       -0.86177
