13
C1Oc2c(C1)scn2
S          1.44821        1.47398        0.08241
H         -2.49742       -0.08085       -1.27814
H         -3.01672       -0.26422        0.41504
H         -1.69684        1.57636        1.12045
H         -1.67522        2.03558       -0.60615
H          3.19403       -0.27981       -0.05120
C         -2.15525       -0.08376       -0.23581
C         -1.43257        1.24761        0.11063
C         -0.06097        0.76200        0.04791
C          0.01152       -0.59152       -0.04691
O         -1.19937       -1.18418       -0.09349
N          1.26095       -1.13021       -0.08437
C          2.12293       -0.12661       -0.02924
