16
c1cc2c(s1)C1CN2C1
S         -1.27559       -0.97954        0.81492
C         -2.26569        0.17293       -0.05794
C         -1.51909        1.19335       -0.64652
H          1.71918       -0.16337       -1.72220
H          3.05661        0.78794       -1.01177
H          2.12103       -0.73347        1.15930
H          2.76144        1.97787        0.75560
H          1.16948        2.04241        1.56791
H         -3.33836        0.03647       -0.07682
H         -1.94016        2.01097       -1.21492
C          2.02094        0.45463       -0.86843
C          1.55660       -0.01237        0.57742
C          1.74914        1.55580        0.77376
N          1.05717        1.58003       -0.56779
C         -0.17202        0.98698       -0.36172
C          0.05912       -0.10880        0.40418
