16
c1cc2c(s1)N1CC2C1
S         -1.59113       -1.22087       -1.08725
H          3.20941       -0.57815       -0.76114
H          1.93234        0.29898       -1.65353
H          1.93461        0.91374        1.24805
H          1.06286       -1.90408        1.56825
H          2.74240       -1.76736        0.96932
H         -1.34012        1.80142        0.98728
H         -3.22852        0.45559       -0.33461
C          2.14892       -0.29534       -0.75963
C          1.47654        0.16458        0.60963
C          1.71654       -1.39596        0.84947
N          1.20935       -1.46449       -0.57074
C         -0.05730       -0.91274       -0.52520
C          0.00870        0.20318        0.24946
C         -1.17983        0.89523        0.41884
C         -2.17867        0.20904       -0.26524
