16
C1C2NC2c2c1csc2
S          2.73275       -0.06222       -0.14179
C          1.62648        1.26440       -0.22690
C          0.33497        0.82781       -0.09310
H         -1.01148        2.19603        0.86766
H         -1.28853        1.99888       -0.88979
H         -2.67574        0.46613        1.10538
H         -1.77613       -0.43015       -1.59121
H         -1.38318       -1.90913        0.84155
H          1.69140       -2.25698        0.27334
H          1.99626        2.27444       -0.33682
C         -1.00295        1.48704        0.03443
C         -1.94718        0.31086        0.32563
N         -2.21129       -0.67109       -0.69874
C         -1.16179       -1.02230        0.26850
C          0.26477       -0.58007        0.05615
C          1.46990       -1.21085        0.11931
