17
C1C2CC2c2c1scc2
S         -1.85920       -1.43868        0.34601
C          1.09438        1.04078       -0.26310
H          3.14071        1.33527        0.57898
H          1.97914        0.57136        1.74024
H          2.57110       -0.43483       -1.16741
H          1.33931       -1.92256        0.98165
H          1.01821       -2.20660       -0.75998
H         -1.81337        2.15133       -0.31997
H         -3.62142        0.25243        0.11126
H          1.23586        1.89900       -0.90387
C          2.22570        0.76475        0.70196
C          1.91512       -0.27150       -0.32715
C          1.01348       -1.46373        0.04322
C         -0.31855       -0.80742        0.17583
C         -0.31236        0.54582       -0.01732
C         -1.58667        1.11383       -0.11502
C         -2.54653        0.13751        0.10572
