21
S=C(N1CC1)NN1CCC1
S          1.25834        0.70419        0.18973
C          2.77856        0.01612        0.01480
N          3.40220       -0.79059        0.97452
N          2.68781       -1.49667        1.95226
C          2.37545       -2.87774        1.46118
C          2.71549       -3.38418        2.87140
C          3.59245       -2.12445        2.95504
N          3.61602        0.07366       -1.12117
C          3.09162        0.20336       -2.46058
C          3.93367        1.26656       -1.84356
H          4.41661       -0.79495        0.97566
H          3.04594       -3.26339        0.68135
H          1.33948       -3.02972        1.14373
H          3.23649       -4.34473        2.92638
H          1.86459       -3.39183        3.56149
H          4.62764       -2.28732        2.62609
H          3.60627       -1.62615        3.93321
H          2.03185        0.37277       -2.56578
H          3.53416       -0.49509       -3.15409
H          3.46873        2.17890       -1.48701
H          4.97355        1.33381       -2.12144
S          1.25834        0.70419        0.18973
